LAMMPS (31 Mar 2017)
# this script simulate a single CNT under longitudinal stress

variable	poro equal 0.03 # control the fraction of atom to remove
variable	seed equal 15462 # change to run different simulation
variable	T equal 300 # initiale temperature
variable	dt equal 0.0005 # ps unit

units		metal # required by airebo
atom_style	full
boundary	p p p
pair_style  	airebo 2.5 1 1

read_data	"data.mysystem"
  orthogonal box = (-50 -50 -60) to (50 50 60)
  reading atoms ...
  700 atoms
change_box	all z final -30 70 y final -20 20 x final -20 20
  orthogonal box = (-50 -50 -30) to (50 50 70)
  orthogonal box = (-50 -20 -30) to (50 20 70)
  orthogonal box = (-20 -20 -30) to (20 20 70)

pair_coeff 	* * ./CH.airebo C C C
Reading potential file ./CH.airebo with DATE: 2011-10-25

group		CNT type 1
700 atoms in group CNT
variable	zmax equal bound(CNT,zmax)-10
variable	zmin equal bound(CNT,zmin)+10
variable	zmax0 equal bound(CNT,zmax)-20
variable	zmin0 equal bound(CNT,zmin)+20

region		top block INF INF INF INF 45.739178 INF
region		bot block INF INF INF INF INF 10
region		mob block INF INF INF INF 20 35.739178
group		topgroup region top
130 atoms in group topgroup
group		botgroup region bot
130 atoms in group botgroup
group		mobile region mob
200 atoms in group mobile

set 		group topgroup type 2 # control group 1
  130 settings made for type
set 		group botgroup type 3 # control group 2
  130 settings made for type

delete_atoms 	porosity mob 0.03 15462
Deleted 7 atoms, new total = 693

fix		myber all temp/berendsen 300 300 0.1
fix		mynve all nve

dump 		mydmp all atom 500 dump.eq.lammpstrj

timestep	0.0005
thermo		500
run		5000 # first step, equilibrate the whole system at 300K
  update every 1 steps, delay 10 steps, check yes
Step Temp E_pair E_mol TotEng Press
0            0   -4979.9019            0   -4979.9019   -3385.0324
Averages over the last 6 of 11 rows, steps 2500 to 5000:
Temp E_pair E_mol TotEng Press
301.685 -4970.5 0 -4943.51 -168.045
Loop time of 28.173 on 1 procs for 5000 steps with 693 atoms

unfix		myber
undump		mydmp

dump 		mydmp all atom 100 dump.run.lammpstrj

fix 		sf1 topgroup setforce NULL NULL 0.0 # kill all the force along z for the control group 1
fix 		sf2 botgroup setforce NULL NULL 0.0 # kill all the force along z for the control group 2
velocity	topgroup set NULL NULL 0 # cancel velocity for the control group 1
velocity	botgroup set NULL NULL 0 # cancel velocity for the control group 2

compute	Ttop topgroup temp/partial 1 1 0 # for thermalisation of the control group 1 along x and y only
compute	Tbot botgroup temp/partial 1 1 0 # for thermalisation of the control group 2 along x and y only
compute	Tmob mobile temp
thermo_modify 	temp Tmob # to print the temperature of the central part

fix		myber1 topgroup temp/berendsen 300 300 0.1
fix_modify	myber1 temp Ttop # for thermalisation of the control group 1 along x and y only
fix		myber2 botgroup temp/berendsen 300 300 0.1
fix_modify	myber2 temp Tbot # for thermalisation of the control group 2 along x and y only

# output
variable	L equal v_zmax-v_zmin # length of the central part
fix 		myat1 all ave/time 10 10 100 v_L file tubeLength.dat
variable	longforce equal f_sf1[3]-f_sf2[3]
fix 		myat2 all ave/time 10 10 100 v_longforce file forcetube.dat

# incremental elongation of the tube

variable 	a loop 100
label 		loop
displace_atoms	topgroup move 0 0 0.1
displace_atoms	botgroup move 0 0 -0.1
run		1000
Step Temp E_pair E_mol TotEng Press
5000    298.93137   -4964.8909            0    -4957.472   -1345.7632
Loop time of 5.6331 on 1 procs for 1000 steps with 693 atoms

next		a
jump 		input.lammps loop
displace_atoms	topgroup move 0 0 0.1
displace_atoms	botgroup move 0 0 -0.1
run		1000
Step Temp E_pair E_mol TotEng Press
6000    354.12682   -4963.2995            0   -4954.5108   -1678.5544
Loop time of 5.62058 on 1 procs for 1000 steps with 693 atoms

next		a
jump 		input.lammps loop
displace_atoms	topgroup move 0 0 0.1
displace_atoms	botgroup move 0 0 -0.1
run		1000
Step Temp E_pair E_mol TotEng Press
7000    307.95887    -4957.883            0     -4950.24   -1736.4194
Loop time of 5.6292 on 1 procs for 1000 steps with 693 atoms

next		a
jump 		input.lammps loop
displace_atoms	topgroup move 0 0 0.1
displace_atoms	botgroup move 0 0 -0.1
run		1000
Step Temp E_pair E_mol TotEng Press
8000    342.44635   -4954.0618            0    -4945.563   -2151.0293
Loop time of 5.62985 on 1 procs for 1000 steps with 693 atoms

next		a
jump 		input.lammps loop
displace_atoms	topgroup move 0 0 0.1
displace_atoms	botgroup move 0 0 -0.1
run		1000
Step Temp E_pair E_mol TotEng Press
9000    352.67382   -4950.0998            0   -4941.3472   -2694.8228
Loop time of 5.62221 on 1 procs for 1000 steps with 693 atoms

next		a
jump 		input.lammps loop
displace_atoms	topgroup move 0 0 0.1
displace_atoms	botgroup move 0 0 -0.1
run		1000
Step Temp E_pair E_mol TotEng Press
10000    393.56213   -4944.9359            0   -4935.1685   -2890.1095
Loop time of 5.62977 on 1 procs for 1000 steps with 693 atoms

next		a
jump 		input.lammps loop
displace_atoms	topgroup move 0 0 0.1
displace_atoms	botgroup move 0 0 -0.1
run		1000
Step Temp E_pair E_mol TotEng Press
11000    402.09738   -4939.8521            0   -4929.8729   -3158.9771
Loop time of 5.61886 on 1 procs for 1000 steps with 693 atoms

next		a
jump 		input.lammps loop
displace_atoms	topgroup move 0 0 0.1
displace_atoms	botgroup move 0 0 -0.1
run		1000
Step Temp E_pair E_mol TotEng Press
12000    412.85916   -4934.3931            0   -4924.1468   -3520.9109
Loop time of 5.59937 on 1 procs for 1000 steps with 693 atoms

next		a
jump 		input.lammps loop
displace_atoms	topgroup move 0 0 0.1
displace_atoms	botgroup move 0 0 -0.1
run		1000
Step Temp E_pair E_mol TotEng Press
13000    411.53714   -4927.4375            0    -4917.224   -4034.5729
Loop time of 5.59465 on 1 procs for 1000 steps with 693 atoms

next		a
jump 		input.lammps loop
displace_atoms	topgroup move 0 0 0.1
displace_atoms	botgroup move 0 0 -0.1
run		1000
Step Temp E_pair E_mol TotEng Press
14000    423.64271   -4920.2992            0   -4909.7853   -4139.0819
Loop time of 5.60622 on 1 procs for 1000 steps with 693 atoms

next		a
jump 		input.lammps loop
displace_atoms	topgroup move 0 0 0.1
displace_atoms	botgroup move 0 0 -0.1
run		1000
Step Temp E_pair E_mol TotEng Press
15000    463.51226   -4916.4721            0   -4904.9687   -4340.5895
Loop time of 5.60511 on 1 procs for 1000 steps with 693 atoms

next		a
jump 		input.lammps loop
displace_atoms	topgroup move 0 0 0.1
displace_atoms	botgroup move 0 0 -0.1
run		1000
Step Temp E_pair E_mol TotEng Press
16000     424.2472   -4907.9878            0   -4897.4588   -4897.6291
Loop time of 5.5974 on 1 procs for 1000 steps with 693 atoms

next		a
jump 		input.lammps loop
displace_atoms	topgroup move 0 0 0.1
displace_atoms	botgroup move 0 0 -0.1
run		1000
Step Temp E_pair E_mol TotEng Press
17000    393.85359    -4898.947            0   -4889.1723   -4979.7542
Loop time of 5.5982 on 1 procs for 1000 steps with 693 atoms

next		a
jump 		input.lammps loop
displace_atoms	topgroup move 0 0 0.1
displace_atoms	botgroup move 0 0 -0.1
run		1000
Step Temp E_pair E_mol TotEng Press
18000    467.17626   -4891.6082            0   -4880.0138    -5165.082
Loop time of 5.60298 on 1 procs for 1000 steps with 693 atoms

next		a
jump 		input.lammps loop
displace_atoms	topgroup move 0 0 0.1
displace_atoms	botgroup move 0 0 -0.1
run		1000
Step Temp E_pair E_mol TotEng Press
19000    553.58707   -4885.1865            0   -4871.4476   -5327.7542
Loop time of 5.5877 on 1 procs for 1000 steps with 693 atoms

next		a
jump 		input.lammps loop
displace_atoms	topgroup move 0 0 0.1
displace_atoms	botgroup move 0 0 -0.1
run		1000
Step Temp E_pair E_mol TotEng Press
20000    511.50143   -4877.5797            0   -4864.8853   -5642.6847
Loop time of 5.59396 on 1 procs for 1000 steps with 693 atoms

next		a
jump 		input.lammps loop
displace_atoms	topgroup move 0 0 0.1
displace_atoms	botgroup move 0 0 -0.1
run		1000
Step Temp E_pair E_mol TotEng Press
21000     442.5138   -4868.3962            0   -4857.4139   -5690.5524
Loop time of 5.5939 on 1 procs for 1000 steps with 693 atoms

next		a
jump 		input.lammps loop
displace_atoms	topgroup move 0 0 0.1
displace_atoms	botgroup move 0 0 -0.1
run		1000
Step Temp E_pair E_mol TotEng Press
22000    450.89942   -4860.4775            0   -4849.2871    -5860.962
Loop time of 5.6074 on 1 procs for 1000 steps with 693 atoms

next		a
jump 		input.lammps loop
displace_atoms	topgroup move 0 0 0.1
displace_atoms	botgroup move 0 0 -0.1
run		1000
Step Temp E_pair E_mol TotEng Press
23000    439.58101   -4851.5859            0   -4840.6764   -6341.9004
Loop time of 5.62721 on 1 procs for 1000 steps with 693 atoms

next		a
jump 		input.lammps loop
displace_atoms	topgroup move 0 0 0.1
displace_atoms	botgroup move 0 0 -0.1
run		1000
Step Temp E_pair E_mol TotEng Press
24000    445.40585   -4841.6871            0   -4830.6331   -6671.3613
Loop time of 5.64522 on 1 procs for 1000 steps with 693 atoms

next		a
jump 		input.lammps loop
displace_atoms	topgroup move 0 0 0.1
displace_atoms	botgroup move 0 0 -0.1
run		1000
Step Temp E_pair E_mol TotEng Press
25000    416.73044   -4834.8038            0   -4824.4614    -6604.808
Loop time of 5.70037 on 1 procs for 1000 steps with 693 atoms

next		a
jump 		input.lammps loop
displace_atoms	topgroup move 0 0 0.1
displace_atoms	botgroup move 0 0 -0.1
run		1000
Step Temp E_pair E_mol TotEng Press
26000    483.74842   -4825.4757            0   -4813.4701   -6772.5076
Loop time of 5.71665 on 1 procs for 1000 steps with 693 atoms

next		a
jump 		input.lammps loop
displace_atoms	topgroup move 0 0 0.1
displace_atoms	botgroup move 0 0 -0.1
run		1000
Step Temp E_pair E_mol TotEng Press
27000    401.19737   -4815.1606            0   -4805.2037   -7451.3553
Loop time of 5.72336 on 1 procs for 1000 steps with 693 atoms

next		a
jump 		input.lammps loop
displace_atoms	topgroup move 0 0 0.1
displace_atoms	botgroup move 0 0 -0.1
run		1000
Step Temp E_pair E_mol TotEng Press
28000    425.65951   -4805.4868            0   -4794.9228   -7376.6417
Loop time of 5.7354 on 1 procs for 1000 steps with 693 atoms

next		a
jump 		input.lammps loop
displace_atoms	topgroup move 0 0 0.1
displace_atoms	botgroup move 0 0 -0.1
run		1000
Step Temp E_pair E_mol TotEng Press
29000    407.84324   -4794.6752            0   -4784.5534   -7708.3422
Loop time of 5.72989 on 1 procs for 1000 steps with 693 atoms

next		a
jump 		input.lammps loop
displace_atoms	topgroup move 0 0 0.1
displace_atoms	botgroup move 0 0 -0.1
run		1000
Step Temp E_pair E_mol TotEng Press
30000    427.05345   -4783.2011            0   -4772.6025   -7770.0904
Loop time of 5.76091 on 1 procs for 1000 steps with 693 atoms

next		a
jump 		input.lammps loop
displace_atoms	topgroup move 0 0 0.1
displace_atoms	botgroup move 0 0 -0.1
run		1000
Step Temp E_pair E_mol TotEng Press
31000    411.14978   -4773.8725            0   -4763.6686   -8158.1832
Loop time of 5.78687 on 1 procs for 1000 steps with 693 atoms

next		a
jump 		input.lammps loop
displace_atoms	topgroup move 0 0 0.1
displace_atoms	botgroup move 0 0 -0.1
run		1000
Step Temp E_pair E_mol TotEng Press
32000    408.03648   -4763.6341            0   -4753.5075   -8095.7317
Loop time of 5.78734 on 1 procs for 1000 steps with 693 atoms

next		a
jump 		input.lammps loop
displace_atoms	topgroup move 0 0 0.1
displace_atoms	botgroup move 0 0 -0.1
run		1000
Step Temp E_pair E_mol TotEng Press
33000    409.13803   -4753.3213            0   -4743.1673   -8227.9763
Loop time of 5.78645 on 1 procs for 1000 steps with 693 atoms

next		a
jump 		input.lammps loop
displace_atoms	topgroup move 0 0 0.1
displace_atoms	botgroup move 0 0 -0.1
run		1000
Step Temp E_pair E_mol TotEng Press
34000    453.99519   -4744.4201            0   -4733.1529   -8449.0325
Loop time of 5.84517 on 1 procs for 1000 steps with 693 atoms

next		a
jump 		input.lammps loop
displace_atoms	topgroup move 0 0 0.1
displace_atoms	botgroup move 0 0 -0.1
run		1000
Step Temp E_pair E_mol TotEng Press
35000    376.93329   -4728.9974            0   -4719.6427   -9024.3884
Loop time of 5.90025 on 1 procs for 1000 steps with 693 atoms

next		a
jump 		input.lammps loop
displace_atoms	topgroup move 0 0 0.1
displace_atoms	botgroup move 0 0 -0.1
run		1000
Step Temp E_pair E_mol TotEng Press
36000    429.08508    -4718.111            0    -4707.462   -9135.6157
Loop time of 5.94097 on 1 procs for 1000 steps with 693 atoms

next		a
jump 		input.lammps loop
displace_atoms	topgroup move 0 0 0.1
displace_atoms	botgroup move 0 0 -0.1
run		1000
Step Temp E_pair E_mol TotEng Press
37000    438.26903   -4705.7207            0   -4694.8437   -8983.1952
Loop time of 5.96709 on 1 procs for 1000 steps with 693 atoms

next		a
jump 		input.lammps loop
displace_atoms	topgroup move 0 0 0.1
displace_atoms	botgroup move 0 0 -0.1
run		1000
Step Temp E_pair E_mol TotEng Press
38000    439.60676   -4692.8938            0   -4681.9837   -9537.3936
Loop time of 6.01675 on 1 procs for 1000 steps with 693 atoms

next		a
jump 		input.lammps loop
displace_atoms	topgroup move 0 0 0.1
displace_atoms	botgroup move 0 0 -0.1
run		1000
Step Temp E_pair E_mol TotEng Press
39000    580.76536   -4684.6943            0   -4670.2809   -9394.2427
Loop time of 6.0716 on 1 procs for 1000 steps with 693 atoms

next		a
jump 		input.lammps loop
displace_atoms	topgroup move 0 0 0.1
displace_atoms	botgroup move 0 0 -0.1
run		1000
Step Temp E_pair E_mol TotEng Press
40000    513.45205   -4671.4459            0   -4658.7031   -9676.2726
Loop time of 6.12027 on 1 procs for 1000 steps with 693 atoms

next		a
jump 		input.lammps loop
displace_atoms	topgroup move 0 0 0.1
displace_atoms	botgroup move 0 0 -0.1
run		1000
Step Temp E_pair E_mol TotEng Press
41000    635.35862   -4660.2922            0   -4644.5239   -9954.2866
Loop time of 6.18028 on 1 procs for 1000 steps with 693 atoms

next		a
jump 		input.lammps loop
displace_atoms	topgroup move 0 0 0.1
displace_atoms	botgroup move 0 0 -0.1
run		1000
Step Temp E_pair E_mol TotEng Press
42000    614.49302   -4648.9228            0   -4633.6723   -9981.7283
Loop time of 6.20481 on 1 procs for 1000 steps with 693 atoms

next		a
jump 		input.lammps loop
displace_atoms	topgroup move 0 0 0.1
displace_atoms	botgroup move 0 0 -0.1
run		1000
Step Temp E_pair E_mol TotEng Press
43000    541.32769   -4633.7593            0   -4620.3246   -10451.788
Loop time of 6.28781 on 1 procs for 1000 steps with 693 atoms

next		a
jump 		input.lammps loop
displace_atoms	topgroup move 0 0 0.1
displace_atoms	botgroup move 0 0 -0.1
run		1000
Loop time of 6.36319 on 1 procs for 1000 steps with 693 atoms

next		a
jump 		input.lammps loop
displace_atoms	topgroup move 0 0 0.1
displace_atoms	botgroup move 0 0 -0.1
run		1000
Loop time of 6.46372 on 1 procs for 1000 steps with 693 atoms

next		a
jump 		input.lammps loop
displace_atoms	topgroup move 0 0 0.1
displace_atoms	botgroup move 0 0 -0.1
run		1000
Loop time of 6.51101 on 1 procs for 1000 steps with 693 atoms

next		a
jump 		input.lammps loop
displace_atoms	topgroup move 0 0 0.1
displace_atoms	botgroup move 0 0 -0.1
run		1000
Loop time of 6.78985 on 1 procs for 1000 steps with 693 atoms

next		a
jump 		input.lammps loop
displace_atoms	topgroup move 0 0 0.1
displace_atoms	botgroup move 0 0 -0.1
run		1000
Loop time of 6.92615 on 1 procs for 1000 steps with 693 atoms

next		a
jump 		input.lammps loop
displace_atoms	topgroup move 0 0 0.1
displace_atoms	botgroup move 0 0 -0.1
run		1000
Loop time of 7.01187 on 1 procs for 1000 steps with 693 atoms

next		a
jump 		input.lammps loop
displace_atoms	topgroup move 0 0 0.1
displace_atoms	botgroup move 0 0 -0.1
run		1000
Loop time of 7.12469 on 1 procs for 1000 steps with 693 atoms

next		a
jump 		input.lammps loop
displace_atoms	topgroup move 0 0 0.1
displace_atoms	botgroup move 0 0 -0.1
run		1000
Loop time of 7.26322 on 1 procs for 1000 steps with 693 atoms

next		a
jump 		input.lammps loop
displace_atoms	topgroup move 0 0 0.1
displace_atoms	botgroup move 0 0 -0.1
run		1000
Loop time of 7.06476 on 1 procs for 1000 steps with 693 atoms

next		a
jump 		input.lammps loop
displace_atoms	topgroup move 0 0 0.1
displace_atoms	botgroup move 0 0 -0.1
run		1000
Loop time of 6.16734 on 1 procs for 1000 steps with 693 atoms

next		a
jump 		input.lammps loop
displace_atoms	topgroup move 0 0 0.1
displace_atoms	botgroup move 0 0 -0.1
run		1000
Loop time of 5.9162 on 1 procs for 1000 steps with 693 atoms

next		a
jump 		input.lammps loop
displace_atoms	topgroup move 0 0 0.1
displace_atoms	botgroup move 0 0 -0.1
run		1000
Loop time of 5.84627 on 1 procs for 1000 steps with 693 atoms

next		a
jump 		input.lammps loop
displace_atoms	topgroup move 0 0 0.1
displace_atoms	botgroup move 0 0 -0.1
run		1000
Loop time of 5.84332 on 1 procs for 1000 steps with 693 atoms

next		a
jump 		input.lammps loop
displace_atoms	topgroup move 0 0 0.1
displace_atoms	botgroup move 0 0 -0.1
run		1000
Loop time of 5.82403 on 1 procs for 1000 steps with 693 atoms

next		a
jump 		input.lammps loop
displace_atoms	topgroup move 0 0 0.1
displace_atoms	botgroup move 0 0 -0.1
run		1000
Loop time of 5.84954 on 1 procs for 1000 steps with 693 atoms

next		a
jump 		input.lammps loop
displace_atoms	topgroup move 0 0 0.1
displace_atoms	botgroup move 0 0 -0.1
run		1000
Loop time of 5.83166 on 1 procs for 1000 steps with 693 atoms

next		a
jump 		input.lammps loop
displace_atoms	topgroup move 0 0 0.1
displace_atoms	botgroup move 0 0 -0.1
run		1000
Loop time of 5.85573 on 1 procs for 1000 steps with 693 atoms

next		a
jump 		input.lammps loop
displace_atoms	topgroup move 0 0 0.1
displace_atoms	botgroup move 0 0 -0.1
run		1000
Loop time of 5.89247 on 1 procs for 1000 steps with 693 atoms

next		a
jump 		input.lammps loop
displace_atoms	topgroup move 0 0 0.1
displace_atoms	botgroup move 0 0 -0.1
run		1000
Loop time of 5.88709 on 1 procs for 1000 steps with 693 atoms

next		a
jump 		input.lammps loop
displace_atoms	topgroup move 0 0 0.1
displace_atoms	botgroup move 0 0 -0.1
run		1000
Loop time of 5.81475 on 1 procs for 1000 steps with 693 atoms

next		a
jump 		input.lammps loop
displace_atoms	topgroup move 0 0 0.1
displace_atoms	botgroup move 0 0 -0.1
run		1000
Loop time of 5.82793 on 1 procs for 1000 steps with 693 atoms

next		a
jump 		input.lammps loop
displace_atoms	topgroup move 0 0 0.1
displace_atoms	botgroup move 0 0 -0.1
run		1000
Loop time of 5.81362 on 1 procs for 1000 steps with 693 atoms

next		a
jump 		input.lammps loop
displace_atoms	topgroup move 0 0 0.1
displace_atoms	botgroup move 0 0 -0.1
run		1000
Loop time of 5.81457 on 1 procs for 1000 steps with 693 atoms

next		a
jump 		input.lammps loop
displace_atoms	topgroup move 0 0 0.1
displace_atoms	botgroup move 0 0 -0.1
run		1000
Loop time of 5.83 on 1 procs for 1000 steps with 693 atoms

next		a
jump 		input.lammps loop
displace_atoms	topgroup move 0 0 0.1
displace_atoms	botgroup move 0 0 -0.1
run		1000
Loop time of 5.82512 on 1 procs for 1000 steps with 693 atoms

next		a
jump 		input.lammps loop
displace_atoms	topgroup move 0 0 0.1
displace_atoms	botgroup move 0 0 -0.1
run		1000
Loop time of 5.83675 on 1 procs for 1000 steps with 693 atoms

next		a
jump 		input.lammps loop
displace_atoms	topgroup move 0 0 0.1
displace_atoms	botgroup move 0 0 -0.1
run		1000
Loop time of 5.81595 on 1 procs for 1000 steps with 693 atoms

next		a
jump 		input.lammps loop
displace_atoms	topgroup move 0 0 0.1
displace_atoms	botgroup move 0 0 -0.1
run		1000
Loop time of 5.81321 on 1 procs for 1000 steps with 693 atoms

next		a
jump 		input.lammps loop
displace_atoms	topgroup move 0 0 0.1
displace_atoms	botgroup move 0 0 -0.1
run		1000
Loop time of 5.81926 on 1 procs for 1000 steps with 693 atoms

next		a
jump 		input.lammps loop
displace_atoms	topgroup move 0 0 0.1
displace_atoms	botgroup move 0 0 -0.1
run		1000
Loop time of 5.80572 on 1 procs for 1000 steps with 693 atoms

next		a
jump 		input.lammps loop
displace_atoms	topgroup move 0 0 0.1
displace_atoms	botgroup move 0 0 -0.1
run		1000
Loop time of 5.80287 on 1 procs for 1000 steps with 693 atoms

next		a
jump 		input.lammps loop
displace_atoms	topgroup move 0 0 0.1
displace_atoms	botgroup move 0 0 -0.1
run		1000
Loop time of 5.81294 on 1 procs for 1000 steps with 693 atoms

next		a
jump 		input.lammps loop
displace_atoms	topgroup move 0 0 0.1
displace_atoms	botgroup move 0 0 -0.1
run		1000
Loop time of 5.80633 on 1 procs for 1000 steps with 693 atoms

next		a
jump 		input.lammps loop
displace_atoms	topgroup move 0 0 0.1
displace_atoms	botgroup move 0 0 -0.1
run		1000
Loop time of 5.81083 on 1 procs for 1000 steps with 693 atoms

next		a
jump 		input.lammps loop
displace_atoms	topgroup move 0 0 0.1
displace_atoms	botgroup move 0 0 -0.1
run		1000
Loop time of 6.1625 on 1 procs for 1000 steps with 693 atoms

next		a
jump 		input.lammps loop
displace_atoms	topgroup move 0 0 0.1
displace_atoms	botgroup move 0 0 -0.1
run		1000
Loop time of 5.81294 on 1 procs for 1000 steps with 693 atoms

next		a
jump 		input.lammps loop
displace_atoms	topgroup move 0 0 0.1
displace_atoms	botgroup move 0 0 -0.1
run		1000
Loop time of 5.81147 on 1 procs for 1000 steps with 693 atoms

next		a
jump 		input.lammps loop
displace_atoms	topgroup move 0 0 0.1
displace_atoms	botgroup move 0 0 -0.1
run		1000
Loop time of 5.80547 on 1 procs for 1000 steps with 693 atoms

next		a
jump 		input.lammps loop
displace_atoms	topgroup move 0 0 0.1
displace_atoms	botgroup move 0 0 -0.1
run		1000
Loop time of 5.7907 on 1 procs for 1000 steps with 693 atoms

next		a
jump 		input.lammps loop
displace_atoms	topgroup move 0 0 0.1
displace_atoms	botgroup move 0 0 -0.1
run		1000
Loop time of 5.78467 on 1 procs for 1000 steps with 693 atoms

next		a
jump 		input.lammps loop
displace_atoms	topgroup move 0 0 0.1
displace_atoms	botgroup move 0 0 -0.1
run		1000
Loop time of 5.78163 on 1 procs for 1000 steps with 693 atoms

next		a
jump 		input.lammps loop
displace_atoms	topgroup move 0 0 0.1
displace_atoms	botgroup move 0 0 -0.1
run		1000
Loop time of 5.78861 on 1 procs for 1000 steps with 693 atoms

next		a
jump 		input.lammps loop
displace_atoms	topgroup move 0 0 0.1
displace_atoms	botgroup move 0 0 -0.1
run		1000
Loop time of 5.77854 on 1 procs for 1000 steps with 693 atoms

next		a
jump 		input.lammps loop
displace_atoms	topgroup move 0 0 0.1
displace_atoms	botgroup move 0 0 -0.1
run		1000
Loop time of 5.77301 on 1 procs for 1000 steps with 693 atoms

next		a
jump 		input.lammps loop
displace_atoms	topgroup move 0 0 0.1
displace_atoms	botgroup move 0 0 -0.1
run		1000
Loop time of 5.7722 on 1 procs for 1000 steps with 693 atoms

next		a
jump 		input.lammps loop
displace_atoms	topgroup move 0 0 0.1
displace_atoms	botgroup move 0 0 -0.1
run		1000
Loop time of 5.75327 on 1 procs for 1000 steps with 693 atoms

next		a
jump 		input.lammps loop
displace_atoms	topgroup move 0 0 0.1
displace_atoms	botgroup move 0 0 -0.1
run		1000
Loop time of 5.75535 on 1 procs for 1000 steps with 693 atoms

next		a
jump 		input.lammps loop
displace_atoms	topgroup move 0 0 0.1
displace_atoms	botgroup move 0 0 -0.1
run		1000
Loop time of 5.74099 on 1 procs for 1000 steps with 693 atoms

next		a
jump 		input.lammps loop
displace_atoms	topgroup move 0 0 0.1
displace_atoms	botgroup move 0 0 -0.1
run		1000
Loop time of 5.73935 on 1 procs for 1000 steps with 693 atoms

next		a
jump 		input.lammps loop
displace_atoms	topgroup move 0 0 0.1
displace_atoms	botgroup move 0 0 -0.1
run		1000
Loop time of 5.7486 on 1 procs for 1000 steps with 693 atoms

next		a
jump 		input.lammps loop
displace_atoms	topgroup move 0 0 0.1
displace_atoms	botgroup move 0 0 -0.1
run		1000
Loop time of 5.75465 on 1 procs for 1000 steps with 693 atoms

next		a
jump 		input.lammps loop
displace_atoms	topgroup move 0 0 0.1
displace_atoms	botgroup move 0 0 -0.1
run		1000
Loop time of 5.74067 on 1 procs for 1000 steps with 693 atoms

next		a
jump 		input.lammps loop
displace_atoms	topgroup move 0 0 0.1
displace_atoms	botgroup move 0 0 -0.1
run		1000
Loop time of 5.73897 on 1 procs for 1000 steps with 693 atoms

next		a
jump 		input.lammps loop
displace_atoms	topgroup move 0 0 0.1
displace_atoms	botgroup move 0 0 -0.1
run		1000
Loop time of 5.74935 on 1 procs for 1000 steps with 693 atoms

next		a
jump 		input.lammps loop
displace_atoms	topgroup move 0 0 0.1
displace_atoms	botgroup move 0 0 -0.1
run		1000
Loop time of 5.7273 on 1 procs for 1000 steps with 693 atoms

next		a
jump 		input.lammps loop
displace_atoms	topgroup move 0 0 0.1
displace_atoms	botgroup move 0 0 -0.1
run		1000
Loop time of 5.71434 on 1 procs for 1000 steps with 693 atoms

next		a
jump 		input.lammps loop
displace_atoms	topgroup move 0 0 0.1
displace_atoms	botgroup move 0 0 -0.1
run		1000
Loop time of 5.71385 on 1 procs for 1000 steps with 693 atoms

next		a
jump 		input.lammps loop
displace_atoms	topgroup move 0 0 0.1
displace_atoms	botgroup move 0 0 -0.1
run		1000
Loop time of 5.71154 on 1 procs for 1000 steps with 693 atoms

next		a
jump 		input.lammps loop
displace_atoms	topgroup move 0 0 0.1
displace_atoms	botgroup move 0 0 -0.1
run		1000
Loop time of 5.72611 on 1 procs for 1000 steps with 693 atoms

next		a
jump 		input.lammps loop
displace_atoms	topgroup move 0 0 0.1
displace_atoms	botgroup move 0 0 -0.1
run		1000
Loop time of 5.7319 on 1 procs for 1000 steps with 693 atoms

next		a
jump 		input.lammps loop
displace_atoms	topgroup move 0 0 0.1
displace_atoms	botgroup move 0 0 -0.1
run		1000
Loop time of 5.73886 on 1 procs for 1000 steps with 693 atoms

next		a
jump 		input.lammps loop
